/*--------------------------------*- C++ -*----------------------------------*\
| =========                 |                                                 |
| \\      /  F ield         | foam-extend: Open Source CFD                    |
|  \\    /   O peration     | Version:     4.1                                |
|   \\  /    A nd           | Web:         http://www.foam-extend.org         |
|    \\/     M anipulation  |                                                 |
\*---------------------------------------------------------------------------*/
FoamFile
{
    version     2.0;
    format      ascii;
    class       dictionary;
    object      transportProperties;
}
// * * * * * * * * * * * * * * * * * * * * * * * * * * * * * * * * * * * * * //

rho0            rho0 [1 -3 0 0 0 0 0] 9720;

nu              nu [0 2 -1 0 0 0 0] 1.54e-07;

T0              T0 [0 0 0 1 0 0 0] 0.0;

Cp              Cp [0 2 -2 -1 0 0 0] 189;

k               k [1 1 -3 -1 0 0 0] 22.36;

beta            beta [0 0 0 -1 0 0 0] 0.00012;

a               a [0 1 0 0 0 0 0] 0.075;

b               b [0 1 0 0 0 0 0] 0.075;

sigma           sigma [-1 -3 3 0 0 2 0] 763000;

q0              q0 [1 -1 -3 0 0 0 0] 4.0e2;

m               m [0 0 0 0 0 0 0 ] 6.3;

coord           2;  //X_axis:1, Y_axis:2, Z_axis:3

Ubar            Ubar [0 1 -1 0 0 0 0] (0.001 0.0 0.0);

fd              true; // "true" for fully developet temp. averaging

// ************************************************************************* //
