/*--------------------------------*- C++ -*----------------------------------*\
| =========                 |                                                 |
| \\      /  F ield         | foam-extend: Open Source CFD                    |
|  \\    /   O peration     | Version:     4.1                                |
|   \\  /    A nd           | Web:         http://www.foam-extend.org         |
|    \\/     M anipulation  |                                                 |
\*---------------------------------------------------------------------------*/
FoamFile
{
    version     2.0;
    format      ascii;
    class       dictionary;
    object      transportProperties;
}
// * * * * * * * * * * * * * * * * * * * * * * * * * * * * * * * * * * * * * //

rho0            rho0 [1 -3 0 0 0 0 0] /rho0/;

nu              nu [0 2 -1 0 0 0 0] /nu/;

T0              T0 [0 0 0 1 0 0 0] /T0/;

Cp              Cp [0 2 -2 -1 0 0 0] /Cp/;

k               k [1 1 -3 -1 0 0 0] /k/;

beta            beta [0 0 0 -1 0 0 0] /beta/;

a               a [0 1 0 0 0 0 0] /a/;

b               b [0 1 0 0 0 0 0] /b/;

sigma           sigma [-1 -3 3 0 0 2 0] /sigma/;

q0              q0 [1 -1 -3 0 0 0 0] /q0/;

m               m [0 0 0 0 0 0 0 ] /m/;

coord           2;  //X_axis:1, Y_axis:2, Z_axis:3

Ubar            Ubar [0 1 -1 0 0 0 0] (/Ux/ 0 0);

fd              false; // "true" for fully developet temp. averaging


// ************************************************************************* //
