/*--------------------------------*- C++ -*----------------------------------*\
| =========                 |                                                 |
| \\      /  F ield         | foam-extend: Open Source CFD                    |
|  \\    /   O peration     | Version:     4.1                                |
|   \\  /    A nd           | Web:         http://www.foam-extend.org         |
|    \\/     M anipulation  |                                                 |
\*---------------------------------------------------------------------------*/
FoamFile
{
    version     2.0;
    format      ascii;
    class       dictionary;
    object      controlDict;
}
// * * * * * * * * * * * * * * * * * * * * * * * * * * * * * * * * * * * * * //

application Q2DmhdFoam;

startFrom       startTime;

startTime       0;

stopAt          endTime;

endTime         20000;

deltaT          0.005;

writeControl    adjustableRunTime;

writeInterval   100;

purgeWrite      0;

writeFormat     ascii;

writePrecision  8;

writeCompression uncompressed;

timeFormat      general;

timePrecision   6;

runTimeModifiable yes;

adjustTimeStep  yes;

epsSteady       1e-8;

maxCo           0.5;


// ************************************************************************* //

ssCriteria      true;

libs
(
    "libfoam.so"
    "libsampling.so"
);


functions
(
    FFT_probes
    {
        type            probes;
        functionObjectLibs ("libsampling.so");
        enabled         true;
        outputControl   outputTime;
        outputInterval  1;
        probeLocations
        (
(0.0001945525291828794 -0.07470817120622568 0.05)
(0.0005836575875486382 -0.07470817120622568 0.05)
(0.0009727626459143971 -0.07470817120622568 0.05)
(0.0013618677042801558 -0.07470817120622568 0.05)
(0.0017509727626459147 -0.07470817120622568 0.05)
(0.002140077821011674 -0.07470817120622568 0.05)
(0.0025291828793774325 -0.07470817120622568 0.05)
(0.0029182879377431916 -0.07470817120622568 0.05)
(0.0033073929961089502 -0.07470817120622568 0.05)
(0.003696498054474709 -0.07470817120622568 0.05)
(0.004085603112840468 -0.07470817120622568 0.05)
(0.004474708171206227 -0.07470817120622568 0.05)
(0.004863813229571985 -0.07470817120622568 0.05)
(0.0052529182879377445 -0.07470817120622568 0.05)
(0.005642023346303504 -0.07470817120622568 0.05)
(0.006031128404669262 -0.07470817120622568 0.05)
(0.006420233463035021 -0.07470817120622568 0.05)
(0.00680933852140078 -0.07470817120622568 0.05)
(0.007198443579766538 -0.07470817120622568 0.05)
(0.007587548638132297 -0.07470817120622568 0.05)
(0.007976653696498056 -0.07470817120622568 0.05)
(0.008365758754863815 -0.07470817120622568 0.05)
(0.008754863813229574 -0.07470817120622568 0.05)
(0.009143968871595331 -0.07470817120622568 0.05)
(0.00953307392996109 -0.07470817120622568 0.05)
(0.00992217898832685 -0.07470817120622568 0.05)
(0.010311284046692609 -0.07470817120622568 0.05)
(0.010700389105058368 -0.07470817120622568 0.05)
(0.011089494163424127 -0.07470817120622568 0.05)
(0.011478599221789884 -0.07470817120622568 0.05)
(0.011867704280155643 -0.07470817120622568 0.05)
(0.012256809338521402 -0.07470817120622568 0.05)
(0.012645914396887161 -0.07470817120622568 0.05)
(0.01303501945525292 -0.07470817120622568 0.05)
(0.01342412451361868 -0.07470817120622568 0.05)
(0.013813229571984439 -0.07470817120622568 0.05)
(0.014202334630350196 -0.07470817120622568 0.05)
(0.014591439688715955 -0.07470817120622568 0.05)
(0.014980544747081714 -0.07470817120622568 0.05)
(0.015369649805447473 -0.07470817120622568 0.05)
(0.015758754863813233 -0.07470817120622568 0.05)
(0.01614785992217899 -0.07470817120622568 0.05)
(0.01653696498054475 -0.07470817120622568 0.05)
(0.016926070038910508 -0.07470817120622568 0.05)
(0.01731517509727627 -0.07470817120622568 0.05)
(0.017704280155642026 -0.07470817120622568 0.05)
(0.018093385214007784 -0.07470817120622568 0.05)
(0.018482490272373545 -0.07470817120622568 0.05)
(0.018871595330739302 -0.07470817120622568 0.05)
(0.019260700389105063 -0.07470817120622568 0.05)
(0.01964980544747082 -0.07470817120622568 0.05)
(0.02003891050583658 -0.07470817120622568 0.05)
(0.02042801556420234 -0.07470817120622568 0.05)
(0.020817120622568096 -0.07470817120622568 0.05)
(0.021206225680933857 -0.07470817120622568 0.05)
(0.021595330739299614 -0.07470817120622568 0.05)
(0.021984435797665375 -0.07470817120622568 0.05)
(0.022373540856031132 -0.07470817120622568 0.05)
(0.02276264591439689 -0.07470817120622568 0.05)
(0.02315175097276265 -0.07470817120622568 0.05)
(0.023540856031128408 -0.07470817120622568 0.05)
(0.02392996108949417 -0.07470817120622568 0.05)
(0.024319066147859926 -0.07470817120622568 0.05)
(0.024708171206225687 -0.07470817120622568 0.05)
(0.025097276264591444 -0.07470817120622568 0.05)
(0.0254863813229572 -0.07470817120622568 0.05)
(0.025875486381322962 -0.07470817120622568 0.05)
(0.02626459143968872 -0.07470817120622568 0.05)
(0.02665369649805448 -0.07470817120622568 0.05)
(0.027042801556420238 -0.07470817120622568 0.05)
(0.027431906614786 -0.07470817120622568 0.05)
(0.027821011673151756 -0.07470817120622568 0.05)
(0.028210116731517514 -0.07470817120622568 0.05)
(0.028599221789883274 -0.07470817120622568 0.05)
(0.028988326848249032 -0.07470817120622568 0.05)
(0.029377431906614793 -0.07470817120622568 0.05)
(0.02976653696498055 -0.07470817120622568 0.05)
(0.030155642023346307 -0.07470817120622568 0.05)
(0.030544747081712068 -0.07470817120622568 0.05)
(0.030933852140077826 -0.07470817120622568 0.05)
(0.031322957198443586 -0.07470817120622568 0.05)
(0.031712062256809344 -0.07470817120622568 0.05)
(0.0321011673151751 -0.07470817120622568 0.05)
(0.032490272373540866 -0.07470817120622568 0.05)
(0.03287937743190662 -0.07470817120622568 0.05)
(0.03326848249027238 -0.07470817120622568 0.05)
(0.03365758754863814 -0.07470817120622568 0.05)
(0.034046692607003895 -0.07470817120622568 0.05)
(0.03443579766536966 -0.07470817120622568 0.05)
(0.03482490272373542 -0.07470817120622568 0.05)
(0.035214007782101174 -0.07470817120622568 0.05)
(0.03560311284046693 -0.07470817120622568 0.05)
(0.03599221789883269 -0.07470817120622568 0.05)
(0.03638132295719845 -0.07470817120622568 0.05)
(0.03677042801556421 -0.07470817120622568 0.05)
(0.03715953307392997 -0.07470817120622568 0.05)
(0.037548638132295725 -0.07470817120622568 0.05)
(0.03793774319066148 -0.07470817120622568 0.05)
(0.03832684824902725 -0.07470817120622568 0.05)
(0.038715953307393004 -0.07470817120622568 0.05)
(0.03910505836575876 -0.07470817120622568 0.05)
(0.03949416342412452 -0.07470817120622568 0.05)
(0.03988326848249028 -0.07470817120622568 0.05)
(0.04027237354085604 -0.07470817120622568 0.05)
(0.0406614785992218 -0.07470817120622568 0.05)
(0.041050583657587555 -0.07470817120622568 0.05)
(0.04143968871595331 -0.07470817120622568 0.05)
(0.04182879377431908 -0.07470817120622568 0.05)
(0.042217898832684835 -0.07470817120622568 0.05)
(0.04260700389105059 -0.07470817120622568 0.05)
(0.04299610894941635 -0.07470817120622568 0.05)
(0.04338521400778211 -0.07470817120622568 0.05)
(0.04377431906614787 -0.07470817120622568 0.05)
(0.04416342412451363 -0.07470817120622568 0.05)
(0.044552529182879386 -0.07470817120622568 0.05)
(0.04494163424124514 -0.07470817120622568 0.05)
(0.0453307392996109 -0.07470817120622568 0.05)
(0.045719844357976665 -0.07470817120622568 0.05)
(0.04610894941634242 -0.07470817120622568 0.05)
(0.04649805447470818 -0.07470817120622568 0.05)
(0.04688715953307394 -0.07470817120622568 0.05)
(0.0472762645914397 -0.07470817120622568 0.05)
(0.04766536964980546 -0.07470817120622568 0.05)
(0.048054474708171216 -0.07470817120622568 0.05)
(0.04844357976653697 -0.07470817120622568 0.05)
(0.04883268482490273 -0.07470817120622568 0.05)
(0.049221789883268495 -0.07470817120622568 0.05)
(0.04961089494163425 -0.07470817120622568 0.05)
(0.05000000000000001 -0.07470817120622568 0.05)
(0.05038910505836577 -0.07470817120622568 0.05)
(0.050778210116731524 -0.07470817120622568 0.05)
(0.05116731517509729 -0.07470817120622568 0.05)
(0.051556420233463046 -0.07470817120622568 0.05)
(0.051945525291828804 -0.07470817120622568 0.05)
(0.05233463035019456 -0.07470817120622568 0.05)
(0.05272373540856032 -0.07470817120622568 0.05)
(0.05311284046692608 -0.07470817120622568 0.05)
(0.05350194552529184 -0.07470817120622568 0.05)
(0.0538910505836576 -0.07470817120622568 0.05)
(0.054280155642023355 -0.07470817120622568 0.05)
(0.05466926070038912 -0.07470817120622568 0.05)
(0.055058365758754876 -0.07470817120622568 0.05)
(0.055447470817120634 -0.07470817120622568 0.05)
(0.05583657587548639 -0.07470817120622568 0.05)
(0.05622568093385215 -0.07470817120622568 0.05)
(0.05661478599221791 -0.07470817120622568 0.05)
(0.05700389105058367 -0.07470817120622568 0.05)
(0.05739299610894943 -0.07470817120622568 0.05)
(0.057782101167315185 -0.07470817120622568 0.05)
(0.05817120622568094 -0.07470817120622568 0.05)
(0.05856031128404671 -0.07470817120622568 0.05)
(0.058949416342412464 -0.07470817120622568 0.05)
(0.05933852140077822 -0.07470817120622568 0.05)
(0.05972762645914398 -0.07470817120622568 0.05)
(0.060116731517509736 -0.07470817120622568 0.05)
(0.0605058365758755 -0.07470817120622568 0.05)
(0.06089494163424126 -0.07470817120622568 0.05)
(0.061284046692607015 -0.07470817120622568 0.05)
(0.06167315175097277 -0.07470817120622568 0.05)
(0.06206225680933854 -0.07470817120622568 0.05)
(0.062451361867704294 -0.07470817120622568 0.05)
(0.06284046692607005 -0.07470817120622568 0.05)
(0.06322957198443581 -0.07470817120622568 0.05)
(0.06361867704280157 -0.07470817120622568 0.05)
(0.06400778210116732 -0.07470817120622568 0.05)
(0.06439688715953308 -0.07470817120622568 0.05)
(0.06478599221789885 -0.07470817120622568 0.05)
(0.06517509727626461 -0.07470817120622568 0.05)
(0.06556420233463037 -0.07470817120622568 0.05)
(0.06595330739299612 -0.07470817120622568 0.05)
(0.06634241245136188 -0.07470817120622568 0.05)
(0.06673151750972764 -0.07470817120622568 0.05)
(0.0671206225680934 -0.07470817120622568 0.05)
(0.06750972762645915 -0.07470817120622568 0.05)
(0.06789883268482491 -0.07470817120622568 0.05)
(0.06828793774319067 -0.07470817120622568 0.05)
(0.06867704280155644 -0.07470817120622568 0.05)
(0.0690661478599222 -0.07470817120622568 0.05)
(0.06945525291828795 -0.07470817120622568 0.05)
(0.06984435797665371 -0.07470817120622568 0.05)
(0.07023346303501947 -0.07470817120622568 0.05)
(0.07062256809338523 -0.07470817120622568 0.05)
(0.07101167315175098 -0.07470817120622568 0.05)
(0.07140077821011674 -0.07470817120622568 0.05)
(0.0717898832684825 -0.07470817120622568 0.05)
(0.07217898832684827 -0.07470817120622568 0.05)
(0.07256809338521403 -0.07470817120622568 0.05)
(0.07295719844357978 -0.07470817120622568 0.05)
(0.07334630350194554 -0.07470817120622568 0.05)
(0.0737354085603113 -0.07470817120622568 0.05)
(0.07412451361867706 -0.07470817120622568 0.05)
(0.07451361867704281 -0.07470817120622568 0.05)
(0.07490272373540857 -0.07470817120622568 0.05)
(0.07529182879377433 -0.07470817120622568 0.05)
(0.07568093385214009 -0.07470817120622568 0.05)
(0.07607003891050586 -0.07470817120622568 0.05)
(0.07645914396887162 -0.07470817120622568 0.05)
(0.07684824902723737 -0.07470817120622568 0.05)
(0.07723735408560313 -0.07470817120622568 0.05)
(0.07762645914396889 -0.07470817120622568 0.05)
(0.07801556420233464 -0.07470817120622568 0.05)
(0.0784046692607004 -0.07470817120622568 0.05)
(0.07879377431906616 -0.07470817120622568 0.05)
(0.07918287937743192 -0.07470817120622568 0.05)
(0.07957198443579769 -0.07470817120622568 0.05)
(0.07996108949416345 -0.07470817120622568 0.05)
(0.0803501945525292 -0.07470817120622568 0.05)
(0.08073929961089496 -0.07470817120622568 0.05)
(0.08112840466926072 -0.07470817120622568 0.05)
(0.08151750972762647 -0.07470817120622568 0.05)
(0.08190661478599223 -0.07470817120622568 0.05)
(0.08229571984435799 -0.07470817120622568 0.05)
(0.08268482490272375 -0.07470817120622568 0.05)
(0.0830739299610895 -0.07470817120622568 0.05)
(0.08346303501945528 -0.07470817120622568 0.05)
(0.08385214007782103 -0.07470817120622568 0.05)
(0.08424124513618679 -0.07470817120622568 0.05)
(0.08463035019455255 -0.07470817120622568 0.05)
(0.0850194552529183 -0.07470817120622568 0.05)
(0.08540856031128406 -0.07470817120622568 0.05)
(0.08579766536964982 -0.07470817120622568 0.05)
(0.08618677042801558 -0.07470817120622568 0.05)
(0.08657587548638133 -0.07470817120622568 0.05)
(0.0869649805447471 -0.07470817120622568 0.05)
(0.08735408560311286 -0.07470817120622568 0.05)
(0.08774319066147862 -0.07470817120622568 0.05)
(0.08813229571984438 -0.07470817120622568 0.05)
(0.08852140077821014 -0.07470817120622568 0.05)
(0.08891050583657589 -0.07470817120622568 0.05)
(0.08929961089494165 -0.07470817120622568 0.05)
(0.08968871595330741 -0.07470817120622568 0.05)
(0.09007782101167316 -0.07470817120622568 0.05)
(0.09046692607003892 -0.07470817120622568 0.05)
(0.0908560311284047 -0.07470817120622568 0.05)
(0.09124513618677045 -0.07470817120622568 0.05)
(0.09163424124513621 -0.07470817120622568 0.05)
(0.09202334630350197 -0.07470817120622568 0.05)
(0.09241245136186772 -0.07470817120622568 0.05)
(0.09280155642023348 -0.07470817120622568 0.05)
(0.09319066147859924 -0.07470817120622568 0.05)
(0.093579766536965 -0.07470817120622568 0.05)
(0.09396887159533075 -0.07470817120622568 0.05)
(0.09435797665369652 -0.07470817120622568 0.05)
(0.09474708171206228 -0.07470817120622568 0.05)
(0.09513618677042804 -0.07470817120622568 0.05)
(0.0955252918287938 -0.07470817120622568 0.05)
(0.09591439688715955 -0.07470817120622568 0.05)
(0.09630350194552531 -0.07470817120622568 0.05)
(0.09669260700389107 -0.07470817120622568 0.05)
(0.09708171206225683 -0.07470817120622568 0.05)
(0.09747081712062258 -0.07470817120622568 0.05)
(0.09785992217898834 -0.07470817120622568 0.05)
(0.09824902723735411 -0.07470817120622568 0.05)
(0.09863813229571987 -0.07470817120622568 0.05)
(0.09902723735408563 -0.07470817120622568 0.05)
(0.09941634241245138 -0.07470817120622568 0.05)
(0.0001945525291828794 -0.07412451361867704 0.05)
(0.0005836575875486382 -0.07412451361867704 0.05)
(0.0009727626459143971 -0.07412451361867704 0.05)
(0.0013618677042801558 -0.07412451361867704 0.05)
(0.0017509727626459147 -0.07412451361867704 0.05)
(0.002140077821011674 -0.07412451361867704 0.05)
(0.0025291828793774325 -0.07412451361867704 0.05)
(0.0029182879377431916 -0.07412451361867704 0.05)
(0.0033073929961089502 -0.07412451361867704 0.05)
(0.003696498054474709 -0.07412451361867704 0.05)
(0.004085603112840468 -0.07412451361867704 0.05)
(0.004474708171206227 -0.07412451361867704 0.05)
(0.004863813229571985 -0.07412451361867704 0.05)
(0.0052529182879377445 -0.07412451361867704 0.05)
(0.005642023346303504 -0.07412451361867704 0.05)
(0.006031128404669262 -0.07412451361867704 0.05)
(0.006420233463035021 -0.07412451361867704 0.05)
(0.00680933852140078 -0.07412451361867704 0.05)
(0.007198443579766538 -0.07412451361867704 0.05)
(0.007587548638132297 -0.07412451361867704 0.05)
(0.007976653696498056 -0.07412451361867704 0.05)
(0.008365758754863815 -0.07412451361867704 0.05)
(0.008754863813229574 -0.07412451361867704 0.05)
(0.009143968871595331 -0.07412451361867704 0.05)
(0.00953307392996109 -0.07412451361867704 0.05)
(0.00992217898832685 -0.07412451361867704 0.05)
(0.010311284046692609 -0.07412451361867704 0.05)
(0.010700389105058368 -0.07412451361867704 0.05)
(0.011089494163424127 -0.07412451361867704 0.05)
(0.011478599221789884 -0.07412451361867704 0.05)
(0.011867704280155643 -0.07412451361867704 0.05)
(0.012256809338521402 -0.07412451361867704 0.05)
(0.012645914396887161 -0.07412451361867704 0.05)
(0.01303501945525292 -0.07412451361867704 0.05)
(0.01342412451361868 -0.07412451361867704 0.05)
(0.013813229571984439 -0.07412451361867704 0.05)
(0.014202334630350196 -0.07412451361867704 0.05)
(0.014591439688715955 -0.07412451361867704 0.05)
(0.014980544747081714 -0.07412451361867704 0.05)
(0.015369649805447473 -0.07412451361867704 0.05)
(0.015758754863813233 -0.07412451361867704 0.05)
(0.01614785992217899 -0.07412451361867704 0.05)
(0.01653696498054475 -0.07412451361867704 0.05)
(0.016926070038910508 -0.07412451361867704 0.05)
(0.01731517509727627 -0.07412451361867704 0.05)
(0.017704280155642026 -0.07412451361867704 0.05)
(0.018093385214007784 -0.07412451361867704 0.05)
(0.018482490272373545 -0.07412451361867704 0.05)
(0.018871595330739302 -0.07412451361867704 0.05)
(0.019260700389105063 -0.07412451361867704 0.05)
(0.01964980544747082 -0.07412451361867704 0.05)
(0.02003891050583658 -0.07412451361867704 0.05)
(0.02042801556420234 -0.07412451361867704 0.05)
(0.020817120622568096 -0.07412451361867704 0.05)
(0.021206225680933857 -0.07412451361867704 0.05)
(0.021595330739299614 -0.07412451361867704 0.05)
(0.021984435797665375 -0.07412451361867704 0.05)
(0.022373540856031132 -0.07412451361867704 0.05)
(0.02276264591439689 -0.07412451361867704 0.05)
(0.02315175097276265 -0.07412451361867704 0.05)
(0.023540856031128408 -0.07412451361867704 0.05)
(0.02392996108949417 -0.07412451361867704 0.05)
(0.024319066147859926 -0.07412451361867704 0.05)
(0.024708171206225687 -0.07412451361867704 0.05)
(0.025097276264591444 -0.07412451361867704 0.05)
(0.0254863813229572 -0.07412451361867704 0.05)
(0.025875486381322962 -0.07412451361867704 0.05)
(0.02626459143968872 -0.07412451361867704 0.05)
(0.02665369649805448 -0.07412451361867704 0.05)
(0.027042801556420238 -0.07412451361867704 0.05)
(0.027431906614786 -0.07412451361867704 0.05)
(0.027821011673151756 -0.07412451361867704 0.05)
(0.028210116731517514 -0.07412451361867704 0.05)
(0.028599221789883274 -0.07412451361867704 0.05)
(0.028988326848249032 -0.07412451361867704 0.05)
(0.029377431906614793 -0.07412451361867704 0.05)
(0.02976653696498055 -0.07412451361867704 0.05)
(0.030155642023346307 -0.07412451361867704 0.05)
(0.030544747081712068 -0.07412451361867704 0.05)
(0.030933852140077826 -0.07412451361867704 0.05)
(0.031322957198443586 -0.07412451361867704 0.05)
(0.031712062256809344 -0.07412451361867704 0.05)
(0.0321011673151751 -0.07412451361867704 0.05)
(0.032490272373540866 -0.07412451361867704 0.05)
(0.03287937743190662 -0.07412451361867704 0.05)
(0.03326848249027238 -0.07412451361867704 0.05)
(0.03365758754863814 -0.07412451361867704 0.05)
(0.034046692607003895 -0.07412451361867704 0.05)
(0.03443579766536966 -0.07412451361867704 0.05)
(0.03482490272373542 -0.07412451361867704 0.05)
(0.035214007782101174 -0.07412451361867704 0.05)
(0.03560311284046693 -0.07412451361867704 0.05)
(0.03599221789883269 -0.07412451361867704 0.05)
(0.03638132295719845 -0.07412451361867704 0.05)
(0.03677042801556421 -0.07412451361867704 0.05)
(0.03715953307392997 -0.07412451361867704 0.05)
(0.037548638132295725 -0.07412451361867704 0.05)
(0.03793774319066148 -0.07412451361867704 0.05)
(0.03832684824902725 -0.07412451361867704 0.05)
(0.038715953307393004 -0.07412451361867704 0.05)
(0.03910505836575876 -0.07412451361867704 0.05)
(0.03949416342412452 -0.07412451361867704 0.05)
(0.03988326848249028 -0.07412451361867704 0.05)
(0.04027237354085604 -0.07412451361867704 0.05)
(0.0406614785992218 -0.07412451361867704 0.05)
(0.041050583657587555 -0.07412451361867704 0.05)
(0.04143968871595331 -0.07412451361867704 0.05)
(0.04182879377431908 -0.07412451361867704 0.05)
(0.042217898832684835 -0.07412451361867704 0.05)
(0.04260700389105059 -0.07412451361867704 0.05)
(0.04299610894941635 -0.07412451361867704 0.05)
(0.04338521400778211 -0.07412451361867704 0.05)
(0.04377431906614787 -0.07412451361867704 0.05)
(0.04416342412451363 -0.07412451361867704 0.05)
(0.044552529182879386 -0.07412451361867704 0.05)
(0.04494163424124514 -0.07412451361867704 0.05)
(0.0453307392996109 -0.07412451361867704 0.05)
(0.045719844357976665 -0.07412451361867704 0.05)
(0.04610894941634242 -0.07412451361867704 0.05)
(0.04649805447470818 -0.07412451361867704 0.05)
(0.04688715953307394 -0.07412451361867704 0.05)
(0.0472762645914397 -0.07412451361867704 0.05)
(0.04766536964980546 -0.07412451361867704 0.05)
(0.048054474708171216 -0.07412451361867704 0.05)
(0.04844357976653697 -0.07412451361867704 0.05)
(0.04883268482490273 -0.07412451361867704 0.05)
(0.049221789883268495 -0.07412451361867704 0.05)
(0.04961089494163425 -0.07412451361867704 0.05)
(0.05000000000000001 -0.07412451361867704 0.05)
(0.05038910505836577 -0.07412451361867704 0.05)
(0.050778210116731524 -0.07412451361867704 0.05)
(0.05116731517509729 -0.07412451361867704 0.05)
(0.051556420233463046 -0.07412451361867704 0.05)
(0.051945525291828804 -0.07412451361867704 0.05)
(0.05233463035019456 -0.07412451361867704 0.05)
(0.05272373540856032 -0.07412451361867704 0.05)
(0.05311284046692608 -0.07412451361867704 0.05)
(0.05350194552529184 -0.07412451361867704 0.05)
(0.0538910505836576 -0.07412451361867704 0.05)
(0.054280155642023355 -0.07412451361867704 0.05)
(0.05466926070038912 -0.07412451361867704 0.05)
(0.055058365758754876 -0.07412451361867704 0.05)
(0.055447470817120634 -0.07412451361867704 0.05)
(0.05583657587548639 -0.07412451361867704 0.05)
(0.05622568093385215 -0.07412451361867704 0.05)
(0.05661478599221791 -0.07412451361867704 0.05)
(0.05700389105058367 -0.07412451361867704 0.05)
(0.05739299610894943 -0.07412451361867704 0.05)
(0.057782101167315185 -0.07412451361867704 0.05)
(0.05817120622568094 -0.07412451361867704 0.05)
(0.05856031128404671 -0.07412451361867704 0.05)
(0.058949416342412464 -0.07412451361867704 0.05)
(0.05933852140077822 -0.07412451361867704 0.05)
(0.05972762645914398 -0.07412451361867704 0.05)
(0.060116731517509736 -0.07412451361867704 0.05)
(0.0605058365758755 -0.07412451361867704 0.05)
(0.06089494163424126 -0.07412451361867704 0.05)
(0.061284046692607015 -0.07412451361867704 0.05)
(0.06167315175097277 -0.07412451361867704 0.05)
(0.06206225680933854 -0.07412451361867704 0.05)
(0.062451361867704294 -0.07412451361867704 0.05)
(0.06284046692607005 -0.07412451361867704 0.05)
(0.06322957198443581 -0.07412451361867704 0.05)
(0.06361867704280157 -0.07412451361867704 0.05)
(0.06400778210116732 -0.07412451361867704 0.05)
(0.06439688715953308 -0.07412451361867704 0.05)
(0.06478599221789885 -0.07412451361867704 0.05)
(0.06517509727626461 -0.07412451361867704 0.05)
(0.06556420233463037 -0.07412451361867704 0.05)
(0.06595330739299612 -0.07412451361867704 0.05)
(0.06634241245136188 -0.07412451361867704 0.05)
(0.06673151750972764 -0.07412451361867704 0.05)
(0.0671206225680934 -0.07412451361867704 0.05)
(0.06750972762645915 -0.07412451361867704 0.05)
(0.06789883268482491 -0.07412451361867704 0.05)
(0.06828793774319067 -0.07412451361867704 0.05)
(0.06867704280155644 -0.07412451361867704 0.05)
(0.0690661478599222 -0.07412451361867704 0.05)
(0.06945525291828795 -0.07412451361867704 0.05)
(0.06984435797665371 -0.07412451361867704 0.05)
(0.07023346303501947 -0.07412451361867704 0.05)
(0.07062256809338523 -0.07412451361867704 0.05)
(0.07101167315175098 -0.07412451361867704 0.05)
(0.07140077821011674 -0.07412451361867704 0.05)
(0.0717898832684825 -0.07412451361867704 0.05)
(0.07217898832684827 -0.07412451361867704 0.05)
(0.07256809338521403 -0.07412451361867704 0.05)
(0.07295719844357978 -0.07412451361867704 0.05)
(0.07334630350194554 -0.07412451361867704 0.05)
(0.0737354085603113 -0.07412451361867704 0.05)
(0.07412451361867706 -0.07412451361867704 0.05)
(0.07451361867704281 -0.07412451361867704 0.05)
(0.07490272373540857 -0.07412451361867704 0.05)
(0.07529182879377433 -0.07412451361867704 0.05)
(0.07568093385214009 -0.07412451361867704 0.05)
(0.07607003891050586 -0.07412451361867704 0.05)
(0.07645914396887162 -0.07412451361867704 0.05)
(0.07684824902723737 -0.07412451361867704 0.05)
(0.07723735408560313 -0.07412451361867704 0.05)
(0.07762645914396889 -0.07412451361867704 0.05)
(0.07801556420233464 -0.07412451361867704 0.05)
(0.0784046692607004 -0.07412451361867704 0.05)
(0.07879377431906616 -0.07412451361867704 0.05)
(0.07918287937743192 -0.07412451361867704 0.05)
(0.07957198443579769 -0.07412451361867704 0.05)
(0.07996108949416345 -0.07412451361867704 0.05)
(0.0803501945525292 -0.07412451361867704 0.05)
(0.08073929961089496 -0.07412451361867704 0.05)
(0.08112840466926072 -0.07412451361867704 0.05)
(0.08151750972762647 -0.07412451361867704 0.05)
(0.08190661478599223 -0.07412451361867704 0.05)
(0.08229571984435799 -0.07412451361867704 0.05)
(0.08268482490272375 -0.07412451361867704 0.05)
(0.0830739299610895 -0.07412451361867704 0.05)
(0.08346303501945528 -0.07412451361867704 0.05)
(0.08385214007782103 -0.07412451361867704 0.05)
(0.08424124513618679 -0.07412451361867704 0.05)
(0.08463035019455255 -0.07412451361867704 0.05)
(0.0850194552529183 -0.07412451361867704 0.05)
(0.08540856031128406 -0.07412451361867704 0.05)
(0.08579766536964982 -0.07412451361867704 0.05)
(0.08618677042801558 -0.07412451361867704 0.05)
(0.08657587548638133 -0.07412451361867704 0.05)
(0.0869649805447471 -0.07412451361867704 0.05)
(0.08735408560311286 -0.07412451361867704 0.05)
(0.08774319066147862 -0.07412451361867704 0.05)
(0.08813229571984438 -0.07412451361867704 0.05)
(0.08852140077821014 -0.07412451361867704 0.05)
(0.08891050583657589 -0.07412451361867704 0.05)
(0.08929961089494165 -0.07412451361867704 0.05)
(0.08968871595330741 -0.07412451361867704 0.05)
(0.09007782101167316 -0.07412451361867704 0.05)
(0.09046692607003892 -0.07412451361867704 0.05)
(0.0908560311284047 -0.07412451361867704 0.05)
(0.09124513618677045 -0.07412451361867704 0.05)
(0.09163424124513621 -0.07412451361867704 0.05)
(0.09202334630350197 -0.07412451361867704 0.05)
(0.09241245136186772 -0.07412451361867704 0.05)
(0.09280155642023348 -0.07412451361867704 0.05)
(0.09319066147859924 -0.07412451361867704 0.05)
(0.093579766536965 -0.07412451361867704 0.05)
(0.09396887159533075 -0.07412451361867704 0.05)
(0.09435797665369652 -0.07412451361867704 0.05)
(0.09474708171206228 -0.07412451361867704 0.05)
(0.09513618677042804 -0.07412451361867704 0.05)
(0.0955252918287938 -0.07412451361867704 0.05)
(0.09591439688715955 -0.07412451361867704 0.05)
(0.09630350194552531 -0.07412451361867704 0.05)
(0.09669260700389107 -0.07412451361867704 0.05)
(0.09708171206225683 -0.07412451361867704 0.05)
(0.09747081712062258 -0.07412451361867704 0.05)
(0.09785992217898834 -0.07412451361867704 0.05)
(0.09824902723735411 -0.07412451361867704 0.05)
(0.09863813229571987 -0.07412451361867704 0.05)
(0.09902723735408563 -0.07412451361867704 0.05)
(0.09941634241245138 -0.07412451361867704 0.05)
(0.0001945525291828794 -0.07354085603112841 0.05)
(0.0005836575875486382 -0.07354085603112841 0.05)
(0.0009727626459143971 -0.07354085603112841 0.05)
(0.0013618677042801558 -0.07354085603112841 0.05)
(0.0017509727626459147 -0.07354085603112841 0.05)
(0.002140077821011674 -0.07354085603112841 0.05)
(0.0025291828793774325 -0.07354085603112841 0.05)
(0.0029182879377431916 -0.07354085603112841 0.05)
(0.0033073929961089502 -0.07354085603112841 0.05)
(0.003696498054474709 -0.07354085603112841 0.05)
(0.004085603112840468 -0.07354085603112841 0.05)
(0.004474708171206227 -0.07354085603112841 0.05)
(0.004863813229571985 -0.07354085603112841 0.05)
(0.0052529182879377445 -0.07354085603112841 0.05)
(0.005642023346303504 -0.07354085603112841 0.05)
(0.006031128404669262 -0.07354085603112841 0.05)
(0.006420233463035021 -0.07354085603112841 0.05)
(0.00680933852140078 -0.07354085603112841 0.05)
(0.007198443579766538 -0.07354085603112841 0.05)
(0.007587548638132297 -0.07354085603112841 0.05)
(0.007976653696498056 -0.07354085603112841 0.05)
(0.008365758754863815 -0.07354085603112841 0.05)
(0.008754863813229574 -0.07354085603112841 0.05)
(0.009143968871595331 -0.07354085603112841 0.05)
(0.00953307392996109 -0.07354085603112841 0.05)
(0.00992217898832685 -0.07354085603112841 0.05)
(0.010311284046692609 -0.07354085603112841 0.05)
(0.010700389105058368 -0.07354085603112841 0.05)
(0.011089494163424127 -0.07354085603112841 0.05)
(0.011478599221789884 -0.07354085603112841 0.05)
(0.011867704280155643 -0.07354085603112841 0.05)
(0.012256809338521402 -0.07354085603112841 0.05)
(0.012645914396887161 -0.07354085603112841 0.05)
(0.01303501945525292 -0.07354085603112841 0.05)
(0.01342412451361868 -0.07354085603112841 0.05)
(0.013813229571984439 -0.07354085603112841 0.05)
(0.014202334630350196 -0.07354085603112841 0.05)
(0.014591439688715955 -0.07354085603112841 0.05)
(0.014980544747081714 -0.07354085603112841 0.05)
(0.015369649805447473 -0.07354085603112841 0.05)
(0.015758754863813233 -0.07354085603112841 0.05)
(0.01614785992217899 -0.07354085603112841 0.05)
(0.01653696498054475 -0.07354085603112841 0.05)
(0.016926070038910508 -0.07354085603112841 0.05)
(0.01731517509727627 -0.07354085603112841 0.05)
(0.017704280155642026 -0.07354085603112841 0.05)
(0.018093385214007784 -0.07354085603112841 0.05)
(0.018482490272373545 -0.07354085603112841 0.05)
(0.018871595330739302 -0.07354085603112841 0.05)
(0.019260700389105063 -0.07354085603112841 0.05)
(0.01964980544747082 -0.07354085603112841 0.05)
(0.02003891050583658 -0.07354085603112841 0.05)
(0.02042801556420234 -0.07354085603112841 0.05)
(0.020817120622568096 -0.07354085603112841 0.05)
(0.021206225680933857 -0.07354085603112841 0.05)
(0.021595330739299614 -0.07354085603112841 0.05)
(0.021984435797665375 -0.07354085603112841 0.05)
(0.022373540856031132 -0.07354085603112841 0.05)
(0.02276264591439689 -0.07354085603112841 0.05)
(0.02315175097276265 -0.07354085603112841 0.05)
(0.023540856031128408 -0.07354085603112841 0.05)
(0.02392996108949417 -0.07354085603112841 0.05)
(0.024319066147859926 -0.07354085603112841 0.05)
(0.024708171206225687 -0.07354085603112841 0.05)
(0.025097276264591444 -0.07354085603112841 0.05)
(0.0254863813229572 -0.07354085603112841 0.05)
(0.025875486381322962 -0.07354085603112841 0.05)
(0.02626459143968872 -0.07354085603112841 0.05)
(0.02665369649805448 -0.07354085603112841 0.05)
(0.027042801556420238 -0.07354085603112841 0.05)
(0.027431906614786 -0.07354085603112841 0.05)
(0.027821011673151756 -0.07354085603112841 0.05)
(0.028210116731517514 -0.07354085603112841 0.05)
(0.028599221789883274 -0.07354085603112841 0.05)
(0.028988326848249032 -0.07354085603112841 0.05)