/*--------------------------------*- C++ -*----------------------------------*\
| =========                 |                                                 |
| \\      /  F ield         | foam-extend: Open Source CFD                    |
|  \\    /   O peration     | Version:     4.1                                |
|   \\  /    A nd           | Web:         http://www.foam-extend.org         |
|    \\/     M anipulation  |                                                 |
\*---------------------------------------------------------------------------*/
FoamFile
{
    version     2.0;
    format      ascii;
    class       dictionary;
    object      transportProperties;
}
// * * * * * * * * * * * * * * * * * * * * * * * * * * * * * * * * * * * * * //

rho0            rho0 [1 -3 0 0 0 0 0] 1.0;

nu              nu [0 2 -1 0 0 0 0] 1.0;

T0              T0 [0 0 0 1 0 0 0] 773;

Cp              Cp [0 2 -2 -1 0 0 0] 1;

k               k [1 1 -3 -1 0 0 0] 0.0001;

beta            beta [0 0 0 -1 0 0 0] 1e-3;

a               a [0 1 0 0 0 0 0] 1;

b               b [0 1 0 0 0 0 0] 1;

sigma           sigma [-1 -3 3 0 0 2 0] 1;

q0              q0 [1 -1 -3 0 0 0 0] 50;

m               m [0 0 0 0 0 0 0 ] 1;

coord           2;  //X_axis:1, Y_axis:2, Z_axis:3

// ************************************************************************* //
