/*--------------------------------*- C++ -*----------------------------------*\
| =========                 |                                                 |
| \\      /  F ield         | OpenFOAM: The Open Source CFD Toolbox           |
|  \\    /   O peration     | Version:  2.4.0                                 |
|   \\  /    A nd           | Web:      www.OpenFOAM.org                      |
|    \\/     M anipulation  |                                                 |
\*---------------------------------------------------------------------------*/
FoamFile
{
    version     2.0;
    format      ascii;
    class       volVectorField;
    location    "0";
    object      U;
}
// * * * * * * * * * * * * * * * * * * * * * * * * * * * * * * * * * * * * * //

dimensions      [0 1 -1 0 0 0 0];

internalField   uniform (0.00021866 0 0);

boundaryField
{
    xinlet
    {
        type            fixedValue;
        value           uniform (0.00021866 0 0);
    }
    xoutlet
    {
        type            advective;
        value           uniform (0.00021866 0 0);
	inletOutlet	false;
	correctSupercritical false;
    }
    sideWalls
    {
        type            fixedValue;
	value		uniform (0 0 0);
    }
    hartmannWalls
    {
        type            fixedValue;
	value		uniform (0 0 0);
    }
    cylinder
    {
        type            fixedValue;
        value           uniform (0 0 0);
    }
}


// ************************************************************************* //
