/*--------------------------------*- C++ -*----------------------------------*\
| =========                 |                                                 |
| \\      /  F ield         | foam-extend: Open Source CFD                    |
|  \\    /   O peration     | Version:     4.1                                |
|   \\  /    A nd           | Web:         http://www.foam-extend.org         |
|    \\/     M anipulation  |                                                 |
\*---------------------------------------------------------------------------*/
FoamFile
{
    version     2.0;
    format      ascii;
    class       dictionary;
    object      fvSchemes;
}
// * * * * * * * * * * * * * * * * * * * * * * * * * * * * * * * * * * * * * //

ddtSchemes
{
    default         Euler;
}

gradSchemes
{
    default         Gauss linear;
    grad(p)         Gauss linear;
}

divSchemes
{
    default         Gauss linear;
    div(phi,U)      Gauss linear;
    div(phi,T)      Gauss linear;
}

laplacianSchemes
{
    default                      Gauss linear corrected;
    laplacian(nu,U)       Gauss linear corrected;
    laplacian((1|A(U)),p)          Gauss linear corrected;
    laplacian((k|(rho0*Cp)),T)   Gauss linear corrected;
}

interpolationSchemes
{
    default           linear;
    interpolate(HbyA) linear;
    laplacian(DT,T)   Gauss linear corrected;
}

snGradSchemes
{
    default         corrected;
}


// ************************************************************************* //
