/*---------------------------------------------------------------------------*\
| =========                 |                                                 |
| \\      /  F ield         | OpenFOAM: The Open Source CFD Toolbox           |
|  \\    /   O peration     | Version:  1.3                                   |
|   \\  /    A nd           | Web:      http://www.openfoam.org               |
|    \\/     M anipulation  |                                                 |
\*---------------------------------------------------------------------------*/

FoamFile
{
    version         2.0;
    format          ascii;

    root            "";
    case            "";
    instance        "";
    local           "";

    class           dictionary;
    object          controlDict;
}

// * * * * * * * * * * * * * * * * * * * * * * * * * * * * * * * * * * * * * //

libs            ("libOpenFOAM.so" "libfieldFunctionObjects.so" "libforces.so");

application 	psiMHDFoam; 

startFrom       latestTime;

startTime       0;

stopAt          endTime;

endTime         550000;

deltaT          2;

writeControl    adjustableRunTime;

writeInterval   10000; 

purgeWrite      0;

writeFormat     ascii;

writePrecision  10;

writeCompression compressed;

timeFormat      general;

timePrecision   8;

runTimeModifiable yes;

adjustTimeStep  yes;

maxCo           0.2;

maxDeltaT       9000; //tau

functions
{

probes
{
    type            probes;
    libs            ("libsampling.so");

    writeControl    timeStep;
    writeInterval   10;
    fields
    (
        U
    );

    // Locations to be probed. runTime modifiable!
    probeLocations
    (
	
