/*--------------------------------*- C++ -*----------------------------------*\
| =========                 |                                                 |
| \\      /  F ield         | foam-extend: Open Source CFD                    |
|  \\    /   O peration     | Version:     4.1                                |
|   \\  /    A nd           | Web:         http://www.foam-extend.org         |
|    \\/     M anipulation  |                                                 |
\*---------------------------------------------------------------------------*/
FoamFile
{
    version     2.0;
    format      ascii;
    class       dictionary;
    location    system;
    object      probesDict;
}
// * * * * * * * * * * * * * * * * * * * * * * * * * * * * * * * * * * * * //

// Fields to be probed. runTime modifiable!
fields
(
    U
);

// Locations to be probed. runTime modifiable!
probeLocations
(
(1.2538910505836576 0.0038910505836575876 1)
(1.2616731517509727 0.0038910505836575876 1)
(1.2694552529182879 0.0038910505836575876 1)
(1.277237354085603 0.0038910505836575876 1)
(1.2850194552529182 0.0038910505836575876 1)
(1.2928015564202333 0.0038910505836575876 1)
(1.3005836575875485 0.0038910505836575876 1)
(1.3083657587548636 0.0038910505836575876 1)
(1.3161478599221788 0.0038910505836575876 1)
(1.323929961089494 0.0038910505836575876 1)
(1.331712062256809 0.0038910505836575876 1)
(1.3394941634241242 0.0038910505836575876 1)
(1.3472762645914393 0.0038910505836575876 1)
(1.3550583657587545 0.0038910505836575876 1)
(1.3628404669260696 0.0038910505836575876 1)
(1.3706225680933848 0.0038910505836575876 1)
(1.3784046692607 0.0038910505836575876 1)
(1.386186770428015 0.0038910505836575876 1)
(1.3939688715953302 0.0038910505836575876 1)
(1.4017509727626454 0.0038910505836575876 1)
(1.4095330739299605 0.0038910505836575876 1)
(1.4173151750972757 0.0038910505836575876 1)
(1.4250972762645908 0.0038910505836575876 1)
(1.432879377431906 0.0038910505836575876 1)
(1.4406614785992211 0.0038910505836575876 1)
(1.4484435797665363 0.0038910505836575876 1)
(1.4562256809338514 0.0038910505836575876 1)
(1.4640077821011666 0.0038910505836575876 1)
(1.4717898832684817 0.0038910505836575876 1)
(1.4795719844357968 0.0038910505836575876 1)
(1.487354085603112 0.0038910505836575876 1)
(1.4951361867704271 0.0038910505836575876 1)
(1.5029182879377423 0.0038910505836575876 1)
(1.5107003891050574 0.0038910505836575876 1)
(1.5184824902723726 0.0038910505836575876 1)
(1.5262645914396877 0.0038910505836575876 1)
(1.5340466926070029 0.0038910505836575876 1)
(1.541828793774318 0.0038910505836575876 1)
(1.5496108949416332 0.0038910505836575876 1)
(1.5573929961089483 0.0038910505836575876 1)
(1.5651750972762635 0.0038910505836575876 1)
(1.5729571984435786 0.0038910505836575876 1)
(1.5807392996108938 0.0038910505836575876 1)
(1.588521400778209 0.0038910505836575876 1)
(1.596303501945524 0.0038910505836575876 1)
(1.6040856031128392 0.0038910505836575876 1)
(1.6118677042801544 0.0038910505836575876 1)
(1.6196498054474695 0.0038910505836575876 1)
(1.6274319066147847 0.0038910505836575876 1)
(1.6352140077820998 0.0038910505836575876 1)
(1.642996108949415 0.0038910505836575876 1)
(1.65077821011673 0.0038910505836575876 1)
(1.6585603112840452 0.0038910505836575876 1)
(1.6663424124513604 0.0038910505836575876 1)
(1.6741245136186755 0.0038910505836575876 1)
(1.6819066147859907 0.0038910505836575876 1)
(1.6896887159533058 0.0038910505836575876 1)
(1.697470817120621 0.0038910505836575876 1)
(1.7052529182879361 0.0038910505836575876 1)
(1.7130350194552513 0.0038910505836575876 1)
(1.7208171206225664 0.0038910505836575876 1)
(1.7285992217898816 0.0038910505836575876 1)
(1.7363813229571967 0.0038910505836575876 1)
(1.7441634241245119 0.0038910505836575876 1)
(1.751945525291827 0.0038910505836575876 1)
(1.7597276264591422 0.0038910505836575876 1)
(1.7675097276264573 0.0038910505836575876 1)
(1.7752918287937725 0.0038910505836575876 1)
(1.7830739299610876 0.0038910505836575876 1)
(1.7908560311284027 0.0038910505836575876 1)
(1.798638132295718 0.0038910505836575876 1)
(1.806420233463033 0.0038910505836575876 1)
(1.8142023346303482 0.0038910505836575876 1)
(1.8219844357976633 0.0038910505836575876 1)
(1.8297665369649785 0.0038910505836575876 1)
(1.8375486381322936 0.0038910505836575876 1)
(1.8453307392996088 0.0038910505836575876 1)
(1.853112840466924 0.0038910505836575876 1)
(1.860894941634239 0.0038910505836575876 1)
(1.8686770428015542 0.0038910505836575876 1)
(1.8764591439688694 0.0038910505836575876 1)
(1.8842412451361845 0.0038910505836575876 1)
(1.8920233463034997 0.0038910505836575876 1)
(1.8998054474708148 0.0038910505836575876 1)
(1.90758754863813 0.0038910505836575876 1)
(1.915369649805445 0.0038910505836575876 1)
(1.9231517509727603 0.0038910505836575876 1)
(1.9309338521400754 0.0038910505836575876 1)
(1.9387159533073905 0.0038910505836575876 1)
(1.9464980544747057 0.0038910505836575876 1)
(1.9542801556420208 0.0038910505836575876 1)
(1.962062256809336 0.0038910505836575876 1)
(1.9698443579766511 0.0038910505836575876 1)
(1.9776264591439663 0.0038910505836575876 1)
(1.9854085603112814 0.0038910505836575876 1)
(1.9931906614785966 0.0038910505836575876 1)
(2.0009727626459117 0.0038910505836575876 1)
(2.008754863813227 0.0038910505836575876 1)
(2.016536964980542 0.0038910505836575876 1)
(2.024319066147857 0.0038910505836575876 1)
(2.0321011673151723 0.0038910505836575876 1)
(2.0398832684824875 0.0038910505836575876 1)
(2.0476653696498026 0.0038910505836575876 1)
(2.0554474708171178 0.0038910505836575876 1)
(2.063229571984433 0.0038910505836575876 1)
(2.071011673151748 0.0038910505836575876 1)
(2.078793774319063 0.0038910505836575876 1)
(2.0865758754863784 0.0038910505836575876 1)
(2.0943579766536935 0.0038910505836575876 1)
(2.1021400778210086 0.0038910505836575876 1)
(2.109922178988324 0.0038910505836575876 1)
(2.117704280155639 0.0038910505836575876 1)
(2.125486381322954 0.0038910505836575876 1)
(2.1332684824902692 0.0038910505836575876 1)
(2.1410505836575844 0.0038910505836575876 1)
(2.1488326848248995 0.0038910505836575876 1)
(2.1566147859922147 0.0038910505836575876 1)
(2.16439688715953 0.0038910505836575876 1)
(2.172178988326845 0.0038910505836575876 1)
(2.17996108949416 0.0038910505836575876 1)
(2.1877431906614753 0.0038910505836575876 1)
(2.1955252918287904 0.0038910505836575876 1)
(2.2033073929961056 0.0038910505836575876 1)
(2.2110894941634207 0.0038910505836575876 1)
(2.218871595330736 0.0038910505836575876 1)
(2.226653696498051 0.0038910505836575876 1)
(2.234435797665366 0.0038910505836575876 1)
(2.2422178988326813 0.0038910505836575876 1)
(2.2499999999999964 0.0038910505836575876 1)
(2.2577821011673116 0.0038910505836575876 1)
(2.2655642023346267 0.0038910505836575876 1)
(2.273346303501942 0.0038910505836575876 1)
(2.281128404669257 0.0038910505836575876 1)
(2.288910505836572 0.0038910505836575876 1)
(2.2966926070038873 0.0038910505836575876 1)
(2.3044747081712025 0.0038910505836575876 1)
(2.3122568093385176 0.0038910505836575876 1)
(2.3200389105058328 0.0038910505836575876 1)
(2.327821011673148 0.0038910505836575876 1)
(2.335603112840463 0.0038910505836575876 1)
(2.343385214007778 0.0038910505836575876 1)
(2.3511673151750934 0.0038910505836575876 1)
(2.3589494163424085 0.0038910505836575876 1)
(2.3667315175097237 0.0038910505836575876 1)
(2.374513618677039 0.0038910505836575876 1)
(2.382295719844354 0.0038910505836575876 1)
(2.390077821011669 0.0038910505836575876 1)
(2.3978599221789842 0.0038910505836575876 1)
(2.4056420233462994 0.0038910505836575876 1)
(2.4134241245136145 0.0038910505836575876 1)
(2.4212062256809297 0.0038910505836575876 1)
(2.428988326848245 0.0038910505836575876 1)
(2.43677042801556 0.0038910505836575876 1)
(2.444552529182875 0.0038910505836575876 1)
(2.4523346303501903 0.0038910505836575876 1)
(2.4601167315175054 0.0038910505836575876 1)
(2.4678988326848206 0.0038910505836575876 1)
(2.4756809338521357 0.0038910505836575876 1)
(2.483463035019451 0.0038910505836575876 1)
(2.491245136186766 0.0038910505836575876 1)
(2.499027237354081 0.0038910505836575876 1)
(2.5068093385213963 0.0038910505836575876 1)
(2.5145914396887115 0.0038910505836575876 1)
(2.5223735408560266 0.0038910505836575876 1)
(2.5301556420233418 0.0038910505836575876 1)
(2.537937743190657 0.0038910505836575876 1)
(2.545719844357972 0.0038910505836575876 1)
(2.553501945525287 0.0038910505836575876 1)
(2.5612840466926023 0.0038910505836575876 1)
(2.5690661478599175 0.0038910505836575876 1)
(2.5768482490272326 0.0038910505836575876 1)
(2.584630350194548 0.0038910505836575876 1)
(2.592412451361863 0.0038910505836575876 1)
(2.600194552529178 0.0038910505836575876 1)
(2.6079766536964932 0.0038910505836575876 1)
(2.6157587548638084 0.0038910505836575876 1)
(2.6235408560311235 0.0038910505836575876 1)
(2.6313229571984387 0.0038910505836575876 1)
(2.639105058365754 0.0038910505836575876 1)
(2.646887159533069 0.0038910505836575876 1)
(2.654669260700384 0.0038910505836575876 1)
(2.6624513618676993 0.0038910505836575876 1)
(2.6702334630350144 0.0038910505836575876 1)
(2.6780155642023296 0.0038910505836575876 1)
(2.6857976653696447 0.0038910505836575876 1)
(2.69357976653696 0.0038910505836575876 1)
(2.701361867704275 0.0038910505836575876 1)
(2.70914396887159 0.0038910505836575876 1)
(2.7169260700389053 0.0038910505836575876 1)
(2.7247081712062204 0.0038910505836575876 1)
(2.7324902723735356 0.0038910505836575876 1)
(2.7402723735408507 0.0038910505836575876 1)
(2.748054474708166 0.0038910505836575876 1)
(2.755836575875481 0.0038910505836575876 1)
(2.763618677042796 0.0038910505836575876 1)
(2.7714007782101113 0.0038910505836575876 1)
(2.7791828793774265 0.0038910505836575876 1)
(2.7869649805447416 0.0038910505836575876 1)
(2.7947470817120568 0.0038910505836575876 1)
(2.802529182879372 0.0038910505836575876 1)
(2.810311284046687 0.0038910505836575876 1)
(2.818093385214002 0.0038910505836575876 1)
(2.8258754863813174 0.0038910505836575876 1)
(2.8336575875486325 0.0038910505836575876 1)
(2.8414396887159477 0.0038910505836575876 1)
(2.849221789883263 0.0038910505836575876 1)
(2.857003891050578 0.0038910505836575876 1)
(2.864785992217893 0.0038910505836575876 1)
(2.8725680933852082 0.0038910505836575876 1)
(2.8803501945525234 0.0038910505836575876 1)
(2.8881322957198385 0.0038910505836575876 1)
(2.8959143968871537 0.0038910505836575876 1)
(2.903696498054469 0.0038910505836575876 1)
(2.911478599221784 0.0038910505836575876 1)
(2.919260700389099 0.0038910505836575876 1)
(2.9270428015564143 0.0038910505836575876 1)
(2.9348249027237294 0.0038910505836575876 1)
(2.9426070038910446 0.0038910505836575876 1)
(2.9503891050583597 0.0038910505836575876 1)
(2.958171206225675 0.0038910505836575876 1)
(2.96595330739299 0.0038910505836575876 1)
(2.973735408560305 0.0038910505836575876 1)
(2.9815175097276203 0.0038910505836575876 1)
(2.9892996108949355 0.0038910505836575876 1)
(2.9970817120622506 0.0038910505836575876 1)
(3.0048638132295657 0.0038910505836575876 1)
(3.012645914396881 0.0038910505836575876 1)
(3.020428015564196 0.0038910505836575876 1)
(3.028210116731511 0.0038910505836575876 1)
(3.0359922178988263 0.0038910505836575876 1)
(3.0437743190661415 0.0038910505836575876 1)
(3.0515564202334566 0.0038910505836575876 1)
(3.059338521400772 0.0038910505836575876 1)
(3.067120622568087 0.0038910505836575876 1)
(3.074902723735402 0.0038910505836575876 1)
(3.0826848249027172 0.0038910505836575876 1)
(3.0904669260700324 0.0038910505836575876 1)
(3.0982490272373475 0.0038910505836575876 1)
(3.1060311284046627 0.0038910505836575876 1)
(3.113813229571978 0.0038910505836575876 1)
(3.121595330739293 0.0038910505836575876 1)
(3.129377431906608 0.0038910505836575876 1)
(3.1371595330739233 0.0038910505836575876 1)
(3.1449416342412384 0.0038910505836575876 1)
(3.1527237354085536 0.0038910505836575876 1)
(3.1605058365758687 0.0038910505836575876 1)
(3.168287937743184 0.0038910505836575876 1)
(3.176070038910499 0.0038910505836575876 1)
(3.183852140077814 0.0038910505836575876 1)
(3.1916342412451293 0.0038910505836575876 1)
(3.1994163424124444 0.0038910505836575876 1)
(3.2071984435797596 0.0038910505836575876 1)
(3.2149805447470747 0.0038910505836575876 1)
(3.22276264591439 0.0038910505836575876 1)
(3.230544747081705 0.0038910505836575876 1)
(3.23832684824902 0.0038910505836575876 1)
(1.2538910505836576 0.011673151750972763 1)
(1.2616731517509727 0.011673151750972763 1)
(1.2694552529182879 0.011673151750972763 1)
(1.277237354085603 0.011673151750972763 1)
(1.2850194552529182 0.011673151750972763 1)
(1.2928015564202333 0.011673151750972763 1)
(1.3005836575875485 0.011673151750972763 1)
(1.3083657587548636 0.011673151750972763 1)
(1.3161478599221788 0.011673151750972763 1)
(1.323929961089494 0.011673151750972763 1)
(1.331712062256809 0.011673151750972763 1)
(1.3394941634241242 0.011673151750972763 1)
(1.3472762645914393 0.011673151750972763 1)
(1.3550583657587545 0.011673151750972763 1)
(1.3628404669260696 0.011673151750972763 1)
(1.3706225680933848 0.011673151750972763 1)
(1.3784046692607 0.011673151750972763 1)
(1.386186770428015 0.011673151750972763 1)
(1.3939688715953302 0.011673151750972763 1)
(1.4017509727626454 0.011673151750972763 1)
(1.4095330739299605 0.011673151750972763 1)
(1.4173151750972757 0.011673151750972763 1)
(1.4250972762645908 0.011673151750972763 1)
(1.432879377431906 0.011673151750972763 1)
(1.4406614785992211 0.011673151750972763 1)
(1.4484435797665363 0.011673151750972763 1)
(1.4562256809338514 0.011673151750972763 1)
(1.4640077821011666 0.011673151750972763 1)
(1.4717898832684817 0.011673151750972763 1)
(1.4795719844357968 0.011673151750972763 1)
(1.487354085603112 0.011673151750972763 1)
(1.4951361867704271 0.011673151750972763 1)
(1.5029182879377423 0.011673151750972763 1)
(1.5107003891050574 0.011673151750972763 1)
(1.5184824902723726 0.011673151750972763 1)
(1.5262645914396877 0.011673151750972763 1)
(1.5340466926070029 0.011673151750972763 1)
(1.541828793774318 0.011673151750972763 1)
(1.5496108949416332 0.011673151750972763 1)
(1.5573929961089483 0.011673151750972763 1)
(1.5651750972762635 0.011673151750972763 1)
(1.5729571984435786 0.011673151750972763 1)
(1.5807392996108938 0.011673151750972763 1)
(1.588521400778209 0.011673151750972763 1)
(1.596303501945524 0.011673151750972763 1)
(1.6040856031128392 0.011673151750972763 1)
(1.6118677042801544 0.011673151750972763 1)
(1.6196498054474695 0.011673151750972763 1)
(1.6274319066147847 0.011673151750972763 1)
(1.6352140077820998 0.011673151750972763 1)
(1.642996108949415 0.011673151750972763 1)
(1.65077821011673 0.011673151750972763 1)
(1.6585603112840452 0.011673151750972763 1)
(1.6663424124513604 0.011673151750972763 1)
(1.6741245136186755 0.011673151750972763 1)
(1.6819066147859907 0.011673151750972763 1)
(1.6896887159533058 0.011673151750972763 1)
(1.697470817120621 0.011673151750972763 1)
(1.7052529182879361 0.011673151750972763 1)
(1.7130350194552513 0.011673151750972763 1)
(1.7208171206225664 0.011673151750972763 1)
(1.7285992217898816 0.011673151750972763 1)
(1.7363813229571967 0.011673151750972763 1)
(1.7441634241245119 0.011673151750972763 1)
(1.751945525291827 0.011673151750972763 1)
(1.7597276264591422 0.011673151750972763 1)
(1.7675097276264573 0.011673151750972763 1)
(1.7752918287937725 0.011673151750972763 1)
(1.7830739299610876 0.011673151750972763 1)
(1.7908560311284027 0.011673151750972763 1)
(1.798638132295718 0.011673151750972763 1)
(1.806420233463033 0.011673151750972763 1)
(1.8142023346303482 0.011673151750972763 1)
(1.8219844357976633 0.011673151750972763 1)
(1.8297665369649785 0.011673151750972763 1)
(1.8375486381322936 0.011673151750972763 1)
(1.8453307392996088 0.011673151750972763 1)
(1.853112840466924 0.011673151750972763 1)
(1.860894941634239 0.011673151750972763 1)
(1.8686770428015542 0.011673151750972763 1)
(1.8764591439688694 0.011673151750972763 1)
(1.8842412451361845 0.011673151750972763 1)
(1.8920233463034997 0.011673151750972763 1)
(1.8998054474708148 0.011673151750972763 1)
(1.90758754863813 0.011673151750972763 1)
(1.915369649805445 0.011673151750972763 1)
(1.9231517509727603 0.011673151750972763 1)
(1.9309338521400754 0.011673151750972763 1)
(1.9387159533073905 0.011673151750972763 1)
(1.9464980544747057 0.011673151750972763 1)
(1.9542801556420208 0.011673151750972763 1)
(1.962062256809336 0.011673151750972763 1)
(1.9698443579766511 0.011673151750972763 1)
(1.9776264591439663 0.011673151750972763 1)
(1.9854085603112814 0.011673151750972763 1)
(1.9931906614785966 0.011673151750972763 1)
(2.0009727626459117 0.011673151750972763 1)
(2.008754863813227 0.011673151750972763 1)
(2.016536964980542 0.011673151750972763 1)
(2.024319066147857 0.011673151750972763 1)
(2.0321011673151723 0.011673151750972763 1)
(2.0398832684824875 0.011673151750972763 1)
(2.0476653696498026 0.011673151750972763 1)
(2.0554474708171178 0.011673151750972763 1)
(2.063229571984433 0.011673151750972763 1)
(2.071011673151748 0.011673151750972763 1)
(2.078793774319063 0.011673151750972763 1)
(2.0865758754863784 0.011673151750972763 1)
(2.0943579766536935 0.011673151750972763 1)
(2.1021400778210086 0.011673151750972763 1)
(2.109922178988324 0.011673151750972763 1)
(2.117704280155639 0.011673151750972763 1)
(2.125486381322954 0.011673151750972763 1)
(2.1332684824902692 0.011673151750972763 1)
(2.1410505836575844 0.011673151750972763 1)
(2.1488326848248995 0.011673151750972763 1)
(2.1566147859922147 0.011673151750972763 1)
(2.16439688715953 0.011673151750972763 1)
(2.172178988326845 0.011673151750972763 1)
(2.17996108949416 0.011673151750972763 1)
(2.1877431906614753 0.011673151750972763 1)
(2.1955252918287904 0.011673151750972763 1)
(2.2033073929961056 0.011673151750972763 1)
(2.2110894941634207 0.011673151750972763 1)
(2.218871595330736 0.011673151750972763 1)
(2.226653696498051 0.011673151750972763 1)
(2.234435797665366 0.011673151750972763 1)
(2.2422178988326813 0.011673151750972763 1)
(2.2499999999999964 0.011673151750972763 1)
(2.2577821011673116 0.011673151750972763 1)
(2.2655642023346267 0.011673151750972763 1)
(2.273346303501942 0.011673151750972763 1)
(2.281128404669257 0.011673151750972763 1)
(2.288910505836572 0.011673151750972763 1)
(2.2966926070038873 0.011673151750972763 1)
(2.3044747081712025 0.011673151750972763 1)
(2.3122568093385176 0.011673151750972763 1)
(2.3200389105058328 0.011673151750972763 1)
(2.327821011673148 0.011673151750972763 1)
(2.335603112840463 0.011673151750972763 1)
(2.343385214007778 0.011673151750972763 1)
(2.3511673151750934 0.011673151750972763 1)
(2.3589494163424085 0.011673151750972763 1)
(2.3667315175097237 0.011673151750972763 1)
(2.374513618677039 0.011673151750972763 1)
(2.382295719844354 0.011673151750972763 1)
(2.390077821011669 0.011673151750972763 1)
(2.3978599221789842 0.011673151750972763 1)
(2.4056420233462994 0.011673151750972763 1)
(2.4134241245136145 0.011673151750972763 1)
(2.4212062256809297 0.011673151750972763 1)
(2.428988326848245 0.011673151750972763 1)
(2.43677042801556 0.011673151750972763 1)
(2.444552529182875 0.011673151750972763 1)
(2.4523346303501903 0.011673151750972763 1)
(2.4601167315175054 0.011673151750972763 1)
(2.4678988326848206 0.011673151750972763 1)
(2.4756809338521357 0.011673151750972763 1)
(2.483463035019451 0.011673151750972763 1)
(2.491245136186766 0.011673151750972763 1)
(2.499027237354081 0.011673151750972763 1)
(2.5068093385213963 0.011673151750972763 1)
(2.5145914396887115 0.011673151750972763 1)
(2.5223735408560266 0.011673151750972763 1)
(2.5301556420233418 0.011673151750972763 1)
(2.537937743190657 0.011673151750972763 1)
(2.545719844357972 0.011673151750972763 1)
(2.553501945525287 0.011673151750972763 1)
(2.5612840466926023 0.011673151750972763 1)
(2.5690661478599175 0.011673151750972763 1)
(2.5768482490272326 0.011673151750972763 1)
(2.584630350194548 0.011673151750972763 1)
(2.592412451361863 0.011673151750972763 1)
(2.600194552529178 0.011673151750972763 1)
(2.6079766536964932 0.011673151750972763 1)
(2.6157587548638084 0.011673151750972763 1)
(2.6235408560311235 0.011673151750972763 1)
(2.6313229571984387 0.011673151750972763 1)
(2.639105058365754 0.011673151750972763 1)
(2.646887159533069 0.011673151750972763 1)
(2.654669260700384 0.011673151750972763 1)
(2.6624513618676993 0.011673151750972763 1)
(2.6702334630350144 0.011673151750972763 1)
(2.6780155642023296 0.011673151750972763 1)
(2.6857976653696447 0.011673151750972763 1)
(2.69357976653696 0.011673151750972763 1)
(2.701361867704275 0.011673151750972763 1)
(2.70914396887159 0.011673151750972763 1)
(2.7169260700389053 0.011673151750972763 1)
(2.7247081712062204 0.011673151750972763 1)
(2.7324902723735356 0.011673151750972763 1)
(2.7402723735408507 0.011673151750972763 1)
(2.748054474708166 0.011673151750972763 1)
(2.755836575875481 0.011673151750972763 1)
(2.763618677042796 0.011673151750972763 1)
(2.7714007782101113 0.011673151750972763 1)
(2.7791828793774265 0.011673151750972763 1)
(2.7869649805447416 0.011673151750972763 1)
(2.7947470817120568 0.011673151750972763 1)
(2.802529182879372 0.011673151750972763 1)
(2.810311284046687 0.011673151750972763 1)
(2.818093385214002 0.011673151750972763 1)
(2.8258754863813174 0.011673151750972763 1)
(2.8336575875486325 0.011673151750972763 1)
(2.8414396887159477 0.011673151750972763 1)
(2.849221789883263 0.011673151750972763 1)
(2.857003891050578 0.011673151750972763 1)
(2.864785992217893 0.011673151750972763 1)
(2.8725680933852082 0.011673151750972763 1)
(2.8803501945525234 0.011673151750972763 1)
(2.8881322957198385 0.011673151750972763 1)
(2.8959143968871537 0.011673151750972763 1)
(2.903696498054469 0.011673151750972763 1)
(2.911478599221784 0.011673151750972763 1)
(2.919260700389099 0.011673151750972763 1)
(2.9270428015564143 0.011673151750972763 1)
(2.9348249027237294 0.011673151750972763 1)
(2.9426070038910446 0.011673151750972763 1)
(2.9503891050583597 0.011673151750972763 1)
(2.958171206225675 0.011673151750972763 1)
(2.96595330739299 0.011673151750972763 1)
(2.973735408560305 0.011673151750972763 1)
(2.9815175097276203 0.011673151750972763 1)
(2.9892996108949355 0.011673151750972763 1)
(2.9970817120622506 0.011673151750972763 1)
(3.0048638132295657 0.011673151750972763 1)
(3.012645914396881 0.011673151750972763 1)
(3.020428015564196 0.011673151750972763 1)
(3.028210116731511 0.011673151750972763 1)
(3.0359922178988263 0.011673151750972763 1)
(3.0437743190661415 0.011673151750972763 1)
(3.0515564202334566 0.011673151750972763 1)
(3.059338521400772 0.011673151750972763 1)
(3.067120622568087 0.011673151750972763 1)
(3.074902723735402 0.011673151750972763 1)
(3.0826848249027172 0.011673151750972763 1)
(3.0904669260700324 0.011673151750972763 1)
(3.0982490272373475 0.011673151750972763 1)
(3.1060311284046627 0.011673151750972763 1)
(3.113813229571978 0.011673151750972763 1)
(3.121595330739293 0.011673151750972763 1)
(3.129377431906608 0.011673151750972763 1)
(3.1371595330739233 0.011673151750972763 1)
(3.1449416342412384 0.011673151750972763 1)
(3.1527237354085536 0.011673151750972763 1)
(3.1605058365758687 0.011673151750972763 1)
(3.168287937743184 0.011673151750972763 1)
(3.176070038910499 0.011673151750972763 1)
(3.183852140077814 0.011673151750972763 1)
(3.1916342412451293 0.011673151750972763 1)
(3.1994163424124444 0.011673151750972763 1)
(3.2071984435797596 0.011673151750972763 1)
(3.2149805447470747 0.011673151750972763 1)
(3.22276264591439 0.011673151750972763 1)
(3.230544747081705 0.011673151750972763 1)
(3.23832684824902 0.011673151750972763 1)
(1.2538910505836576 0.019455252918287938 1)
(1.2616731517509727 0.019455252918287938 1)
(1.2694552529182879 0.019455252918287938 1)
(1.277237354085603 0.019455252918287938 1)
(1.2850194552529182 0.019455252918287938 1)
(1.2928015564202333 0.019455252918287938 1)
(1.3005836575875485 0.019455252918287938 1)
(1.3083657587548636 0.019455252918287938 1)
(1.3161478599221788 0.019455252918287938 1)
(1.323929961089494 0.019455252918287938 1)
(1.331712062256809 0.019455252918287938 1)
(1.3394941634241242 0.019455252918287938 1)
(1.3472762645914393 0.019455252918287938 1)
(1.3550583657587545 0.019455252918287938 1)
(1.3628404669260696 0.019455252918287938 1)
(1.3706225680933848 0.019455252918287938 1)
(1.3784046692607 0.019455252918287938 1)
(1.386186770428015 0.019455252918287938 1)
(1.3939688715953302 0.019455252918287938 1)
(1.4017509727626454 0.019455252918287938 1)
(1.4095330739299605 0.019455252918287938 1)
(1.4173151750972757 0.019455252918287938 1)
(1.4250972762645908 0.019455252918287938 1)
(1.432879377431906 0.019455252918287938 1)
(1.4406614785992211 0.019455252918287938 1)
(1.4484435797665363 0.019455252918287938 1)
(1.4562256809338514 0.019455252918287938 1)
(1.4640077821011666 0.019455252918287938 1)
(1.4717898832684817 0.019455252918287938 1)
(1.4795719844357968 0.019455252918287938 1)
(1.487354085603112 0.019455252918287938 1)
(1.4951361867704271 0.019455252918287938 1)
(1.5029182879377423 0.019455252918287938 1)
(1.5107003891050574 0.019455252918287938 1)
(1.5184824902723726 0.019455252918287938 1)
(1.5262645914396877 0.019455252918287938 1)
(1.5340466926070029 0.019455252918287938 1)
(1.541828793774318 0.019455252918287938 1)
(1.5496108949416332 0.019455252918287938 1)
(1.5573929961089483 0.019455252918287938 1)
(1.5651750972762635 0.019455252918287938 1)
(1.5729571984435786 0.019455252918287938 1)
(1.5807392996108938 0.019455252918287938 1)
(1.588521400778209 0.019455252918287938 1)
(1.596303501945524 0.019455252918287938 1)
(1.6040856031128392 0.019455252918287938 1)
(1.6118677042801544 0.019455252918287938 1)
(1.6196498054474695 0.019455252918287938 1)
(1.6274319066147847 0.019455252918287938 1)
(1.6352140077820998 0.019455252918287938 1)
(1.642996108949415 0.019455252918287938 1)
(1.65077821011673 0.019455252918287938 1)
(1.6585603112840452 0.019455252918287938 1)
(1.6663424124513604 0.019455252918287938 1)
(1.6741245136186755 0.019455252918287938 1)
(1.6819066147859907 0.019455252918287938 1)
(1.6896887159533058 0.019455252918287938 1)
(1.697470817120621 0.019455252918287938 1)
(1.7052529182879361 0.019455252918287938 1)
(1.7130350194552513 0.019455252918287938 1)
(1.7208171206225664 0.019455252918287938 1)
(1.7285992217898816 0.019455252918287938 1)
(1.7363813229571967 0.019455252918287938 1)
(1.7441634241245119 0.019455252918287938 1)
(1.751945525291827 0.019455252918287938 1)
(1.7597276264591422 0.019455252918287938 1)
(1.7675097276264573 0.019455252918287938 1)
(1.7752918287937725 0.019455252918287938 1)
(1.7830739299610876 0.019455252918287938 1)
(1.7908560311284027 0.019455252918287938 1)
(1.798638132295718 0.019455252918287938 1)
(1.806420233463033 0.019455252918287938 1)
(1.8142023346303482 0.019455252918287938 1)
(1.8219844357976633 0.019455252918287938 1)
(1.8297665369649785 0.019455252918287938 1)
(1.8375486381322936 0.019455252918287938 1)
(1.8453307392996088 0.019455252918287938 1)
(1.853112840466924 0.019455252918287938 1)
(1.860894941634239 0.019455252918287938 1)
(1.8686770428015542 0.019455252918287938 1)
(1.8764591439688694 0.019455252918287938 1)
(1.8842412451361845 0.019455252918287938 1)
(1.8920233463034997 0.019455252918287938 1)
(1.8998054474708148 0.019455252918287938 1)
(1.90758754863813 0.019455252918287938 1)
(1.915369649805445 0.019455252918287938 1)
(1.9231517509727603 0.019455252918287938 1)
(1.9309338521400754 0.019455252918287938 1)
(1.9387159533073905 0.019455252918287938 1)
(1.9464980544747057 0.019455252918287938 1)
(1.9542801556420208 0.019455252918287938 1)
(1.962062256809336 0.019455252918287938 1)
(1.9698443579766511 0.019455252918287938 1)
(1.9776264591439663 0.019455252918287938 1)
(1.9854085603112814 0.019455252918287938 1)
(1.9931906614785966 0.019455252918287938 1)
(2.0009727626459117 0.019455252918287938 1)
(2.008754863813227 0.019455252918287938 1)
(2.016536964980542 0.019455252918287938 1)
(2.024319066147857 0.019455252918287938 1)
(2.0321011673151723 0.019455252918287938 1)
(2.0398832684824875 0.019455252918287938 1)
(2.0476653696498026 0.019455252918287938 1)
(2.0554474708171178 0.019455252918287938 1)
(2.063229571984433 0.019455252918287938 1)
(2.071011673151748 0.019455252918287938 1)
(2.078793774319063 0.019455252918287938 1)
(2.0865758754863784 0.019455252918287938 1)
(2.0943579766536935 0.019455252918287938 1)
(2.1021400778210086 0.019455252918287938 1)
(2.109922178988324 0.019455252918287938 1)
(2.117704280155639 0.019455252918287938 1)
(2.125486381322954 0.019455252918287938 1)
(2.1332684824902692 0.019455252918287938 1)
(2.1410505836575844 0.019455252918287938 1)
(2.1488326848248995 0.019455252918287938 1)
(2.1566147859922147 0.019455252918287938 1)
(2.16439688715953 0.019455252918287938 1)
(2.172178988326845 0.019455252918287938 1)
(2.17996108949416 0.019455252918287938 1)
(2.1877431906614753 0.019455252918287938 1)
(2.1955252918287904 0.019455252918287938 1)
(2.2033073929961056 0.019455252918287938 1)
(2.2110894941634207 0.019455252918287938 1)
(2.218871595330736 0.019455252918287938 1)
(2.226653696498051 0.019455252918287938 1)
(2.234435797665366 0.019455252918287938 1)
(2.2422178988326813 0.019455252918287938 1)
(2.2499999999999964 0.019455252918287938 1)
(2.2577821011673116 0.019455252918287938 1)
(2.2655642023346267 0.019455252918287938 1)
(2.273346303501942 0.019455252918287938 1)
(2.281128404669257 0.019455252918287938 1)
(2.288910505836572 0.019455252918287938 1)
(2.2966926070038873 0.019455252918287938 1)
(2.3044747081712025 0.019455252918287938 1)
(2.3122568093385176 0.019455252918287938 1)
(2.3200389105058328 0.019455252918287938 1)
(2.327821011673148 0.019455252918287938 1)
(2.335603112840463 0.019455252918287938 1)
(2.343385214007778 0.019455252918287938 1)
(2.3511673151750934 0.019455252918287938 1)
(2.3589494163424085 0.019455252918287938 1)
(2.3667315175097237 0.019455252918287938 1)
(2.374513618677039 0.019455252918287938 1)
(2.382295719844354 0.019455252918287938 1)
(2.390077821011669 0.019455252918287938 1)
(2.3978599221789842 0.019455252918287938 1)
(2.4056420233462994 0.019455252918287938 1)