/*---------------------------------------------------------------------------*\
| =========                 |                                                 |
| \\      /  F ield         | OpenFOAM: The Open Source CFD Toolbox           |
|  \\    /   O peration     | Version:  1.3                                   |
|   \\  /    A nd           | Web:      http://www.openfoam.org               |
|    \\/     M anipulation  |                                                 |
\*---------------------------------------------------------------------------*/

FoamFile
{
    version         2.0;
    format          ascii;

    root            "";
    case            "";
    instance        "";
    local           "";

    class           dictionary;
    object          sampleDict;
}

// * * * * * * * * * * * * * * * * * * * * * * * * * * * * * * * * * * * * * //



interpolationScheme cellPoint;

setFormat     gnuplot;

sets        
();

banana
(
    LM1
    {
	type		plane;
	basePoint	(0.05 -0.99 0);
	normalVector	(0 -1 0);
	interpolate	true;
    }
);


surfaceFormat	raw;


fields   ( U );




// ************************************************************************* //
