/*--------------------------------*- C++ -*----------------------------------*\
| =========                 |                                                 |
| \\      /  F ield         | foam-extend: Open Source CFD                    |
|  \\    /   O peration     | Version:     4.1                                |
|   \\  /    A nd           | Web:         http://www.foam-extend.org         |
|    \\/     M anipulation  |                                                 |
\*---------------------------------------------------------------------------*/
FoamFile
{
    version     2.0;
    format      ascii;
    class       polyBoundaryMesh;
    location    "constant/polyMesh";
    object      boundary;
}
// * * * * * * * * * * * * * * * * * * * * * * * * * * * * * * * * * * * * * //

5
(
    xinlet
    {
        type            patch;
        nFaces          80;
        startFace       31542;
    }
    xoutlet
    {
        type            patch;
        nFaces          80;
        startFace       31622;
    }
    sideWalls
    {
        type            patch;
        nFaces          400;
        startFace       31702;
    }
    hartmannWalls
    {
        type            patch;
        nFaces          31840;
        startFace       32102;
    }
    cylinder
    {
        type            patch;
        nFaces          36;
        startFace       63942;
    }
)


// ************************************************************************* //
