/*--------------------------------*- C++ -*----------------------------------*\
| =========                 |                                                 |
| \\      /  F ield         | OpenFOAM: The Open Source CFD Toolbox           |
|  \\    /   O peration     | Version:  1.3                                   |
|   \\  /    A nd           | Web:      http://www.openfoam.org               |
|    \\/     M anipulation  |                                                 |
\*---------------------------------------------------------------------------*/

FoamFile
{
    version         2.0;
    format          ascii;

    root            "";
    case            "";
    instance        "";
    local           "";

    class           dictionary;
    object          controlDict;
}

// * * * * * * * * * * * * * * * * * * * * * * * * * * * * * * * * * * * * * //

<<<<<<< HEAD:run/Ha_14_2_orig/system/controlDict
libs            ("libOpenFOAM.so" "libfieldFunctionObjects.so" "libforces.so");
=======
libs            ("libfieldFunctionObjects.so" "libforces.so");
>>>>>>> 7deb114f4f0a1f2e490fb3cb3459035e7f7b8fa3:run/muck_q2d/system/controlDict

application 	psiMHDFoam; 

startFrom       latestTime;

startTime       0;

stopAt          endTime;

<<<<<<< HEAD:run/Ha_14_2_orig/system/controlDict
endTime         550000;
=======
endTime         250000;
>>>>>>> 7deb114f4f0a1f2e490fb3cb3459035e7f7b8fa3:run/muck_q2d/system/controlDict

deltaT          2;

writeControl    adjustableRunTime;

<<<<<<< HEAD:run/Ha_14_2_orig/system/controlDict
writeInterval   10000; 
=======
writeInterval   5000; 
>>>>>>> 7deb114f4f0a1f2e490fb3cb3459035e7f7b8fa3:run/muck_q2d/system/controlDict

purgeWrite      0;

writeFormat     ascii;

writePrecision  10;

writeCompression compressed;

timeFormat      general;

timePrecision   8;

runTimeModifiable yes;

adjustTimeStep  yes;

maxCo           0.2;

maxDeltaT       9000; //tau

functions
{
<<<<<<< HEAD:run/Ha_14_2_orig/system/controlDict

probes
{
    type            probes;
    libs            ("libsampling.so");

    writeControl    timeStep;
    writeInterval   10;
    fields
    (
        U
    );

    // Locations to be probed. runTime modifiable!
    probeLocations
    (
        (1.24 1 1)
        (1.34 1 1)
        (1.44 1 1)
    );
}


forcesCo
{
    type            forceCoeffs;
    functionObjectlibs        ( "libforces.so" );
    outputControl    timeStep;
    timeInterval    10;
    patches         ( "c.*" );     //*/
    rhoInf          9838.6622;           // Redundant for incompressible
    rhoName         rhoInf;      // Indicates incompressible
    pName           p;
    UName           U;
    log             true;
    liftDir         (0 1 0);
    dragDir         (1 0 0);
    CofR            (1.1 1 1);  // Axle midpoint on ground*/
    pitchAxis       (0 1 0);
    magUInf         0.00021866;
    lRef            0.2;        // Wheelbase length
    Aref            0.4;        // Estimated   (2*b)*w=  (2*1)*0.2=  0.4 
}



// ************************************************************************* //
=======
	probes
	{
	    type            probes;
	    libs            ("libsampling.so");

	    writeControl    timeStep;
	    writeInterval   10;
	    fields
	    (
		U
	    );

	    // Locations to be probed. runTime modifiable!
	    probeLocations
	    (
		(1.24 1 0)
		(1.34 1 0)
		(1.44 1 0)
	    );
	}

	
	forcesCo
	{
	    type            forceCoeffs;
	    functionObjectlibs        ( "libforces.so" );
	    outputControl    timeStep;
	    timeInterval    10;
	    patches         ( "c.*" );    
	    rhoInf          9838.6622;   // Redundant for incompressible
	    rhoName         rhoInf;      // Indicates incompressible
	    pName           p;
	    UName           U;
	    log             true;
	    liftDir         (0 1 0);
	    dragDir         (1 0 0);
	    CofR            (1.1 1 1);   // Axle midpoint on ground
	    pitchAxis       (0 1 0);
	    magUInf         0.00021866;
	    lRef            0.2;         // Wheelbase length
	    Aref            0.004;         // Estimated   (2*b)*w=  (0.02)*0.2=  0.004 
	}
}	


	// ************************************************************************* //
>>>>>>> 7deb114f4f0a1f2e490fb3cb3459035e7f7b8fa3:run/muck_q2d/system/controlDict
