/*--------------------------------*- C++ -*----------------------------------*\
| =========                 |                                                 |
| \\      /  F ield         | foam-extend: Open Source CFD                    |
|  \\    /   O peration     | Version:     4.1                                |
|   \\  /    A nd           | Web:         http://www.foam-extend.org         |
|    \\/     M anipulation  |                                                 |
\*---------------------------------------------------------------------------*/
FoamFile
{
    version     2.0;
    format      ascii;
    class       dictionary;
    object      sampleDict;
}
// * * * * * * * * * * * * * * * * * * * * * * * * * * * * * * * * * * * * * //

interpolationScheme cellPoint;

setFormat     raw;

sets
(
    line_centreProfile_side
    {
        type            uniform;

        axis            distance;
        start           (10.001 -1 0);
        end             (10.001 1 0);
        nPoints         100;
    }
    line_centreProfile_hartmann
    {
        type            uniform;

        axis            distance;
        start           (10.001 0 -1);
        end             (10.001 0 1);
        nPoints         100;
    }

);

surfaceFormat null;

surfaces
();

fields
(
    U
);


// ************************************************************************* //
