// blockMesh :  Block mesh description file
// * * * * * * * * * * * * * * * * * * * * * * * * * * * * * * * * * * * * * //
FoamFile
{
    version     2.0;
    format      ascii;
    class       dictionary;
    object      blockMeshDict;
}
// ************************************






// aquest mallat correpon al del benchmark, per Ha=14, pero s'utilitza per tots els casos: Ha=0, Ha=6 i Ha=14.

   meshGenApp blockMesh;
   convertToMeters 1.000;

    

    
    
        
    

    
    
            
    

    
    
                
    

    
    
                
    

    
    
        
    
    
        //100
         //      //45
       
    

   //******* channel coordinates and mesh ***********
   
          //******* mainfold ***********
   
      // 
      // 
    

            // l = left, mirant des del plasma
   
   
            // r = right, mirant des del plasma

             // u = up
             // d = down
   
   vertices
   (
    // INLET B11 **********************************************
    (0  0.9  0) // Vertex B11_i_l_d = 0 
    (0  0  0) // Vertex B11_i_r_d = 1 
    (0  0.9  2) // Vertex B11_i_l_u = 2 
    (0  0  2) // Vertex B11_i_r_u = 3 
    // OUTLET B11 *********************************************
    (1  0.9  0) // Vertex B11_o_l_d = 4 
    (1  0  0) // Vertex B11_o_r_d = 5 
    (1  0.9  2) // Vertex B11_o_l_u = 6 
    (1  0  2) // Vertex B11_o_r_u = 7 

    // INLET B12 **********************************************
    (0  1.1  0) // Vertex B12_i_l_d = 8 
    (0  0.9  0) // Vertex B12_i_r_d = 9 
    (0  1.1  2) // Vertex B12_i_l_u = 10 
    (0  0.9  2) // Vertex B12_i_r_u = 11 
    // OUTLET B12 *********************************************
    (1  1.1  0) // Vertex B12_o_l_d = 12 
    (1  0.9  0) // Vertex B12_o_r_d = 13 
    (1  1.1  2) // Vertex B12_o_l_u = 14 
    (1  0.9  2) // Vertex B12_o_r_u = 15 

    // INLET B13 **********************************************
    (0  2  0) // Vertex B13_i_l_d = 16 
    (0  1.1  0) // Vertex B13_i_r_d = 17 
    (0  2  2) // Vertex B13_i_l_u = 18 
    (0  1.1  2) // Vertex B13_i_r_u = 19 
    // OUTLET B13 *********************************************
    (1  2  0) // Vertex B13_o_l_d = 20 
    (1  1.1  0) // Vertex B13_o_r_d = 21 
    (1  2  2) // Vertex B13_o_l_u = 22 
    (1  1.1  2) // Vertex B13_o_r_u = 23 

    // INLET B2 **********************************************
    (1  0.9  0) // Vertex B2_i_l_d = 24 
    (1  0   0) // Vertex B2_i_r_d = 25 
    (1  0.9  2) // Vertex B2_i_l_u = 26 
    (1  0   2) // Vertex B2_i_r_u = 27 

    // OUTLET B2 **********************************************
    (1.2  0.9  0) // Vertex B2_o_l_d = 28 
    (1.2  0   0) // Vertex B2_o_r_d = 29 
    (1.2  0.9  2) // Vertex B2_o_l_u = 30 
    (1.2  0   2) // Vertex B2_o_r_u = 31 

    // INLET B3 **********************************************
    (1  2    0) // Vertex B3_i_l_d = 32 
    (1  1.1   0) // Vertex B3_i_r_d = 33 
    (1  2    2) // Vertex B3_i_l_u = 34 
    (1  1.1   2) // Vertex B3_i_r_u = 35 

    // OUTLET B3 **********************************************
    (1.2  2    0) // Vertex B3_o_l_d = 36 
    (1.2  1.1   0) // Vertex B3_o_r_d = 37 
    (1.2  2    2) // Vertex B3_o_l_u = 38 
    (1.2  1.1   2) // Vertex B3_o_r_u = 39 


    // INLET B41 **********************************************
    (1.2  0.9  0) // Vertex B41_i_l_d = 40 
    (1.2  0  0) // Vertex B41_i_r_d = 41 
    (1.2  0.9  2) // Vertex B41_i_l_u = 42 
    (1.2  0  2) // Vertex B41_i_r_u = 43 
    // OUTLET B41 *********************************************
    (4  0.9  0) // Vertex B41_o_l_d = 44 
    (4  0  0) // Vertex B41_o_r_d = 45 
    (4  0.9  2) // Vertex B41_o_l_u = 46 
    (4  0  2) // Vertex B41_o_r_u = 47     

    // INLET B42 **********************************************
    (1.2  1.1  0) // Vertex B42_i_l_d = 48 
    (1.2  0.9  0) // Vertex B42_i_r_d = 49 
    (1.2  1.1  2) // Vertex B42_i_l_u = 50 
    (1.2  0.9  2) // Vertex B42_i_r_u = 51 
    // OUTLET B42 *********************************************
    (4  1.1  0) // Vertex B42_o_l_d = 52 
    (4  0.9  0) // Vertex B42_o_r_d = 53 
    (4  1.1  2) // Vertex B42_o_l_u = 54 
    (4  0.9  2) // Vertex B42_o_r_u = 55            
    
    // INLET B43 **********************************************
    (1.2  2  0) // Vertex B43_i_l_d = 56 
    (1.2  1.1  0) // Vertex B43_i_r_d = 57 
    (1.2  2  2) // Vertex B43_i_l_u = 58 
    (1.2  1.1  2) // Vertex B43_i_r_u = 59 
    // OUTLET B43 *********************************************
    (4  2  0) // Vertex B43_o_l_d = 60 
    (4  1.1  0) // Vertex B43_o_r_d = 61 
    (4  2  2) // Vertex B43_o_l_u = 62 
    (4  1.1  2) // Vertex B43_o_r_u = 63         
       
   );				


   blocks
   (
    //*******************************************
    //*****************************************************************
	// B11
    hex (1 5 4 0 3 7 6 2)
    (50 40 66) simpleGrading ( 
    (   //definition on X
        1
    )
    (   //definition on Y
        (0.15922         9       3.017)
        (0.74078         31        0.69296)
    )
    (   //definition on Z
        (0.028169      3        1.5625)
        (0.97183       30         4.1592)        
        (0.97183       30         0.24043085208694)        
        (0.028169      3        0.64)
    )
    )    
    // end block B11
    
	// B12
    hex (9 13 12 8 11 15 14 10)
    (50 10 66) simpleGrading ( 
    (   //definition on X
        1
    )
    (   //definition on Y
        1
    )
    (   //definition on Z
        (0.028169      3        1.5625)
        (0.97183       30         4.1592)        
        (0.97183       30         0.24043085208694)        
        (0.028169      3        0.64)
    )
    )   
    // end block B12    

	// B13
    hex (17 21 20 16 19 23 22 18)
    (50 40 66) simpleGrading ( 
    (   //definition on X
        1
    )
    (   //definition on Y
        (0.74078         31        1.44308473793581)
        (0.15922         9       0.331455087835598)
    )
    (   //definition on Z
        (0.028169      3        1.5625)
        (0.97183       30         4.1592)        
        (0.97183       30         0.24043085208694)        
        (0.028169      3        0.64)
    )
    )   
    // end block B13    
    
    

	// B2
    hex (25 29 28 24 27 31 30 26)
    (10 40 66) simpleGrading ( 
    (   //definition on X
        1
    )
    (   //definition on Y
        (0.15922         9       3.017)
        (0.74078         31        0.69296)
    )
    (   //definition on Z
        (0.028169      3        1.5625)
        (0.97183       30         4.1592)        
        (0.97183       30         0.24043085208694)        
        (0.028169      3        0.64)
    )
    )    
    // end block B2    

	// B3
    hex (33 37 36 32 35 39 38 34)
    (10 40 66) simpleGrading ( 
    (   //definition on X
        1
    )
    (   //definition on Y
        (0.74078         31        1.44308473793581)
        (0.15922         9       0.331455087835598)
    )
    (   //definition on Z
        (0.028169      3        1.5625)
        (0.97183       30         4.1592)        
        (0.97183       30         0.24043085208694)        
        (0.028169      3        0.64)
    )
    )   
    // end block B3    

	// B41
    hex (41 45 44 40 43 47 46 42)
    (140 40 66) simpleGrading ( 
    (   //definition on X
        1
    )
    (   //definition on Y
        (0.15922         9       3.017)
        (0.74078         31        0.69296)
    )
    (   //definition on Z
        (0.028169      3        1.5625)
        (0.97183       30         4.1592)        
        (0.97183       30         0.24043085208694)        
        (0.028169      3        0.64)
    )
    )    
    // end block B41
    
	// B42
    hex (49 53 52 48 51 55 54 50)
    (140 10 66) simpleGrading ( 
    (   //definition on X
        1
    )
    (   //definition on Y
        1
    )
    (   //definition on Z
        (0.028169      3        1.5625)
        (0.97183       30         4.1592)        
        (0.97183       30         0.24043085208694)        
        (0.028169      3        0.64)
    )
    )    
    // end block B42    

	// B43
    hex (57 61 60 56 59 63 62 58)
    (140 40 66) simpleGrading ( 
    (   //definition on X
        1
    )
    (   //definition on Y
        (0.74078         31        1.44308473793581)
        (0.15922         9       0.331455087835598)
    )
    (   //definition on Z
        (0.028169      3        1.5625)
        (0.97183       30         4.1592)        
        (0.97183       30         0.24043085208694)        
        (0.028169      3        0.64)
    )
    )   
    // end block B43  

   );       //end blocks


//   edges
//   (
//     // Xr *************************************
//     arc xr_r1u_r1t xr_r1u_r1b (Xr Yr1arcu Zr1arc0)
//     arc xr_r1u_r1b xr_r1d_r1b (Xr Yr1arc0 Zr1arcb)
//     arc xr_r1d_r1b xr_r1d_r1t (Xr Yr1arcd Zr1arc0)
//     arc xr_r1d_r1t xr_r1u_r1t (Xr Yr1arc0 Zr1arct)
//     );



   patches
   (
      patch xinlet 
      (
	(1   3    2    0)
    (9   11    10    8)   	
    (17   19    18    16)
      )

     patch xoutlet 
      (
	(45   47    46    44)
	(53   55    54    52)
	(61   63    62    60)		
      )

     patch sideWalls
      (
    // Side right wall 
	(1   5    7    3)
	(25   29    31    27)	
	(41   45    47    43)	

    // Side left wall 	
	(16   18    22    20)
	(32   34    38    36)
	(56   58    62    60)		
    )

     patch hartmannWalls
      (
    // Hartmann up wall 
    (3   7    6    2)
    (11   15    14    10)
    (19   23    22    18)        
    (27   31    30    26)
    (35   39    38    34)
    (43   47    46    42)   
    (51   55    54    50)            
    (59   63    62    58)                     

    // Hartmann down wall 
    (1   0    4    5)
    (9   8    12    13)
    (17   16    20    21)
    (25   24    28    29)
    (33   32    36    37)
    (41   40    44    45)
    (49   48    52    53)
    (57   56    60    61)        
        )
    
        patch cleft
        (
    (33   37   39      35)    
        )    
        patch cright
        (
    (24   26    30    28)    
        )    
        patch cinlet
        (
    (15   13    12    14)    
        )
        patch coutlet
        (
    (48   49    51    50)    
        )    




        patch iil_inter
        (
    (23   21    20    22)    
        )    
        patch iol_inter
        (
    (32   33    35    34)    
        )            
        patch oil_inter
        (
    (39   37    36    38)    
        )    
        patch ool_inter
        (
    (56   57    59    58)    
        )           
    
        patch iir_inter
        (
    (7   5    4    6)    
        )    
        patch ior_inter
        (
    (24   25    27    26)    
        )            
        patch oir_inter
        (
    (31   29    28    30)    
        )    
        patch oor_inter
        (
    (40   41    43    42)    
        )       





    
        patch rri_inter
        (
    (0   2    6    4)    
        )
        patch rli_inter
        (
    (9   13   15      11)    
        )    
        patch lri_inter
        (
    (8   10    14    12)    
        )
        patch lli_inter
        (
    (17   21   23      19)    
        )        
        
        patch rro_inter
        (
    (40   42    46    44)    
        )
        patch rlo_inter
        (
    (49   53   55      51)    
        )    
        patch lro_inter
        (
    (48   50    54    52)    
        )
        patch llo_inter
        (
    (57   61   63      59)    
        )                
        
        
    
    
     
  );














